Results/hp-future/powerflow/line_summaries.csv
,active_line_losses_mw,reactive_line_losses_mvar,apparent_line_losses_mva
0,0.05116972490313637,-0.41179979455095017,0.47563374855527446
1,0.04327964539275038,-0.41826479741079425,0.4698573587250519
2,0.04249714830721297,-0.4189373110374367,0.4692658042818074
3,0.04095252911493802,-0.42027849900234476,0.4682381705126361
4,0.03967558250109604,-0.42137925438176277,0.4674384569477201
5,0.038184283798063545,-0.42261911276938424,0.4664432981107244
6,0.039238982779149355,-0.4217240910968134,0.4672368976044148
7,0.04317606358724879,-0.41848989008023574,0.47009373422492495
8,0.04332311974981656,-0.4183986491958431,0.4702208967085677
9,0.04518946546234767,-0.4168331822626871,0.4715988589146118
10,0.05375089413859425,-0.4098413437322917,0.47781000396780643
11,0.05663379430236368,-0.40744747476526033,0.4798490273890405
12,0.061525988441824934,-0.40352107646965013,0.4835403809611364
13,0.058730345186414484,-0.40571256913383186,0.48136997962974365
14,0.06055725486103876,-0.40420359272539524,0.4826095390820588
15,0.06431353076979363,-0.40121954707481744,0.48553710717271364
16,0.0696085023960445,-0.397041343482576,0.4899089383347439
17,0.07459651148102753,-0.39312186009954253,0.49380892111734187
18,0.06801101742275537,-0.39831368839911385,0.48843237189993194
19,0.06963200049149144,-0.39699180239530274,0.4897193937881228
20,0.07209699064508981,-0.3950451535107648,0.49165815800527435
21,0.06702739775633436,-0.3991226905354275,0.48787120756700203
22,0.05943459348967371,-0.405164528648703,0.4819273399621565
23,0.05085731328473434,-0.41213130600110043,0.4756148125281955
24,0.04566765619237837,-0.4163854729131761,0.4719234153212588
25,0.042042522471560914,-0.41935257542015775,0.46927567349145616
26,0.03716127482795743,-0.42345829986992745,0.4659402573708515
27,0.03714561310435643,-0.4234379064654461,0.46581370235412906
28,0.040825871101867625,-0.42036145177493156,0.4685127439980402
29,0.04310288302618705,-0.41850524719292054,0.47001275516240715
30,0.0532315263388465,-0.4101615105026679,0.47728503857864907
31,0.063102999578539,-0.40217622285896487,0.484659127094601
32,0.06169007270243761,-0.40329320571827,0.4835119790198512
33,0.06944739954828544,-0.3971989603310005,0.4897712850474682
34,0.0673161022490247,-0.3988806086936499,0.48789515590804894
35,0.06733771388399194,-0.39887517606607986,0.4879120583709899
36,0.06910039490128239,-0.39752864662822357,0.4894156818559851
37,0.07041231435902891,-0.39646004991616074,0.4902358613986896
38,0.06896534493170677,-0.39761838850510395,0.48930024591252846
39,0.07172957758904042,-0.39533053707894106,0.4911887512863946
40,0.08241807783085486,-0.3867531733754784,0.4994738968549691
41,0.08412973855803513,-0.38536792829842054,0.5006117622231561
42,0.08114462840170196,-0.38782195432276667,0.4983275950232531
43,0.08110475585867838,-0.3877531121124866,0.4979494779384144
44,0.08771597046179397,-0.3826222555376894,0.5035467609509483
45,0.08088483096637838,-0.3879268842258663,0.49785885957110165
46,0.07141076881726754,-0.3953847847361214,0.4903697984336251
47,0.06213189595616863,-0.4028349384083882,0.4834110213184013
48,0.05661227055539393,-0.4073233604093913,0.4794643441269582
49,0.04997730182354423,-0.4127079042464374,0.474511299856102
50,0.05012461355389998,-0.4126210023628466,0.47460667557209435
51,0.04762899536089371,-0.4146669660144521,0.47285513343264896
52,0.04843589226952537,-0.41398710344859446,0.4734686458488652
53,0.05033981649974545,-0.41244990781116936,0.4747704257559118
54,0.062266336893986085,-0.4028028773044315,0.48378394074017134
55,0.07706782828309247,-0.3910100618377303,0.49536843831292604
56,0.07467597342449117,-0.39298035170174006,0.4937871381032116
57,0.07267678746611905,-0.3945887994698791,0.49230726866799795
58,0.071001728192075,-0.3959259685120835,0.4907868787104172
59,0.06917416533758354,-0.39727686855219885,0.4892097405459353
60,0.06754370354864755,-0.39864137670112865,0.4882137872876938
61,0.06371592846433817,-0.40161629394034654,0.4849603457237975
62,0.06569604237807326,-0.4000366437033257,0.48637905424310945
63,0.07367197254588007,-0.39374681528205746,0.492688023880535
64,0.08164076901803463,-0.3873712415240796,0.49866133023381043
65,0.08740031405540802,-0.3828631258193762,0.5032614903854279
66,0.08529853900861799,-0.38466632828693426,0.5016754353538443
67,0.08213031415306918,-0.387108979292136,0.4991792007457383
68,0.08322986654448362,-0.38623309929825866,0.5000505976151524
69,0.07863165304902478,-0.3898521326949022,0.4963558113793184
70,0.0693458811891928,-0.39722624667796164,0.48925255434538784
71,0.06182842081159788,-0.4032032349129952,0.4834325128414991
72,0.05512776840921642,-0.40854694018707777,0.4782927292132173
73,0.047958444249104296,-0.414391671108416,0.4730413238305905
74,0.04747541516189501,-0.4147361441389786,0.4726353881213983
75,0.04414994496109173,-0.41747171154572543,0.4702124027017693
76,0.04525864450832473,-0.41655913136922723,0.47091660761322696
77,0.050285543344979464,-0.41246669718390533,0.4746363639626927
78,0.061898543336151635,-0.4031739300360228,0.48350772001150855
79,0.07801033820262429,-0.3903533911523125,0.49613288787937904
80,0.07655922493479643,-0.3914294601685093,0.49483349783013014
81,0.07480051941998377,-0.3928714403772382,0.49390455720444154
82,0.07876939886843727,-0.3898146809820386,0.49715285530773573
83,0.07267407303569318,-0.39464900867318736,0.4922223127567907
84,0.06944962812872249,-0.3971117529786536,0.4894336531291741
85,0.06717477044651618,-0.39889574931806293,0.48771621378048724
86,0.07059103264093142,-0.39620737740199574,0.4904153616651493
87,0.07895991453817088,-0.3896231796141038,0.49707106201373974
88,0.08506211144828578,-0.3847202273853666,0.5016262592684964
89,0.09515824502213288,-0.37695849181134006,0.5100670792261646
90,0.08776911229147252,-0.3826732346039057,0.503757330886036
91,0.079997041897832,-0.3886718674888093,0.4970506880504949
92,0.08129489836515258,-0.3876569249876112,0.49811048865958785
93,0.07681615861262951,-0.3912075398898577,0.4945860500863685
94,0.07193542123469213,-0.39514562875343734,0.49084668923137614
95,0.061839112972027876,-0.40320077124491005,0.4831637675092748
96,0.05303449708207722,-0.4102983714004318,0.4767118455977603
97,0.04900091817055425,-0.4135661525601128,0.4738628226969123
98,0.04625552976439251,-0.41585572162996925,0.4717884114923241
99,0.04403293463225481,-0.41768687299418716,0.4702182718257075
100,0.04436195118088207,-0.4173873817476933,0.47042884780788724
101,0.05019283115713444,-0.412647760391225,0.474746264413534
102,0.060793640262154,-0.40406041347774313,0.48260610269218107
103,0.07389024886638008,-0.3935350549445633,0.4926262771468051
104,0.07609516803839134,-0.3918347033928646,0.4945390254099206
105,0.07204068095029642,-0.3950702161138056,0.49159530737507146
106,0.07330343098056674,-0.39401843639464645,0.49260218558100327
107,0.07484396332208607,-0.39278532036351865,0.4936913652181135
108,0.07063606012127117,-0.3960895781171688,0.49020222581205614
109,0.07382942829888385,-0.39360405412643396,0.49285443535316026
110,0.07941342730267671,-0.38913165069093436,0.4972317476762921
111,0.08035227497044113,-0.388348934302531,0.49781921725853145
112,0.089456854472515,-0.3812488589036501,0.505126100005989
113,0.0895968042293766,-0.38111096005186756,0.5049953213960142
114,0.08440932881943632,-0.385112351543681,0.5005189411726755
115,0.0841825476065799,-0.3851974588116352,0.5001106658502414
116,0.08112849912950708,-0.3876944257563046,0.49775558505449563
117,0.07503991571484318,-0.3925620986935189,0.4931732067573966
118,0.07250571830045531,-0.39465460616626463,0.4914880600208578
119,0.06995200891125122,-0.3966949828732959,0.48963084773921606
120,0.05546798471451228,-0.4082190643211427,0.4783157245560035
121,0.05381453645225651,-0.4096816931457845,0.47737977201687154
122,0.052008581683906346,-0.41106232465494646,0.47596443619739903
123,0.05116367605296496,-0.4117849207285533,0.4754198205442057
124,0.050213146056601085,-0.4125629063825597,0.47465635694766356
125,0.053336861140427835,-0.410061324247895,0.47702525049748834
126,0.0581682638119094,-0.40613470334614366,0.48065310707232617
127,0.06271271205059015,-0.40254356735069635,0.48405298140182085
128,0.06577762528948275,-0.40004650587663626,0.4863196747883684
129,0.07192739214525365,-0.3951598570362037,0.49108832597747276
130,0.0831183116649176,-0.386337267097697,0.5000604006222747
131,0.08629348421912283,-0.38368401806466945,0.5021499082786365
132,0.0923918256830214,-0.37896237144583184,0.5072506907917038
133,0.08669151562511426,-0.3834138718996434,0.5026181897974077
134,0.07786844259588749,-0.39027729468470246,0.49525144359970524
135,0.08705147974228733,-0.38316408513274747,0.5030459799689836
136,0.09323437444330131,-0.37826867494359323,0.5079548868073791
137,0.09533602867043606,-0.376614503760957,0.5094920738317472
138,0.09406737446105017,-0.3775168098342322,0.5079105360274386
139,0.09143211714035074,-0.3795315203996537,0.5058569774062838
140,0.0877288541295205,-0.38257623328677304,0.5032467907493483
141,0.08575213914030372,-0.3840585499706446,0.5014992651390614
142,0.08193876780786673,-0.3870690414128051,0.49859072639029073
143,0.07675281597439515,-0.39119426527804313,0.49458916449024964
144,0.07378037238939078,-0.3935856496970095,0.49237139276342695
145,0.06893029034755116,-0.3974413684501328,0.4886557466774597
146,0.06892872908002093,-0.39748665541026046,0.48891100749739624
147,0.06333431772803738,-0.4018630764371408,0.48431855565056436
148,0.06527173610557888,-0.40032512413522203,0.4858285203070447
149,0.06865178644547054,-0.3976896753298627,0.4886443576021175
150,0.07049359357068052,-0.39615770224334174,0.4898743971761759
151,0.07540586586046813,-0.3922688760812262,0.49370368826037936
152,0.08420932597982939,-0.3854203906149203,0.5009756931654713
153,0.08918801737198762,-0.3814290819894531,0.5046919147544396
154,0.09882707014572492,-0.37392492850174114,0.5125410733043186
155,0.09939208093664356,-0.3734290422712531,0.512738381050065
156,0.10180182082510664,-0.37161669915707174,0.5149593598443447
157,0.1049994053476254,-0.3691509198192835,0.517788607260473
158,0.10415572468094354,-0.3698169181112902,0.5171458231115773
159,0.10197371729873539,-0.37145125598762563,0.5151208460959343
160,0.10171753115535609,-0.3716022931223065,0.5145762152134314
161,0.10541355498974152,-0.3688188054400474,0.5178108781092144
162,0.10323919830984771,-0.3703591764411393,0.5155351118633589
163,0.10178080791643643,-0.3715907898283485,0.5145242999326088
164,0.1035891327857588,-0.3703052860327838,0.5165712649171403
165,0.09188047195206431,-0.3794433673123041,0.5070437832651713
166,0.07816022100641624,-0.39013680522867344,0.4957817161610906
167,0.06832649336747909,-0.39791428120165506,0.48809827001622774
168,0.06210918950444858,-0.40300001291093446,0.4837485277554435
169,0.05645647148103233,-0.40757653096609964,0.47952469859115865
170,0.055019173489686934,-0.4087394745648849,0.4785278592246473
171,0.05447621917814918,-0.4091379666966074,0.47804144347969474
172,0.05339250808545556,-0.40995081413017953,0.47697212432610514
173,0.05708491705975122,-0.40706000530910413,0.4799817069858451
174,0.06934535394599657,-0.3972526631660455,0.48949136221574835
175,0.08494758423970007,-0.3849073259005305,0.5018041989788133
176,0.08896918019308922,-0.3817575336925507,0.5052037120876912
177,0.08223261676369578,-0.3870995794475036,0.4998043592268432
178,0.08401833225001643,-0.38578469051135866,0.501313147514131
179,0.0747690817685763,-0.3929587583504162,0.49349887166253026
180,0.07081568579605682,-0.3960096934220725,0.49047790504545963
181,0.06617755068212602,-0.3996832703267103,0.48703303920108665
182,0.06964246157874533,-0.39690660692773777,0.48952755792793134
183,0.07677956989828133,-0.3911535169702724,0.4948561079587729
184,0.09396423124690079,-0.37769106714533907,0.5087452402513738
185,0.09878281079890697,-0.3739631149863173,0.5126156454278122
186,0.09129055091127053,-0.37965901963653914,0.5057684805756397
187,0.0974647464036763,-0.37482673861906857,0.5106449816855613
188,0.09506686314764107,-0.376753735853865,0.5089515136900418
189,0.09597797232637832,-0.37600578218432124,0.5097015385701279
190,0.08744075915096615,-0.3827598822521957,0.5030615354043574
191,0.07653754172364328,-0.39142764732459173,0.4945697961787962
192,0.0659975244846989,-0.39983388160021366,0.4865438907514288
193,0.06707642342697868,-0.39895929025834287,0.48761159303398377
194,0.06584337614679117,-0.3999922962420887,0.4867213918509147
195,0.05966110072572785,-0.4048809913710702,0.481666899553237
196,0.059626670699793896,-0.4049605382734633,0.4817705516278593
197,0.0657212150969545,-0.4000497831914946,0.48642752330294403
198,0.08000693818602087,-0.3886790873123005,0.49757589087272713
199,0.09372010516948553,-0.37796096704760235,0.5087877456951481
...
